<routes>
  <vType id="car" length="5" accel="5" decel="10" tau="0.5" speedDev="0.1"/>
  <flow id="f:0_0" departPos="random_free" from="-10114#1" to="10180#1" via="-10114#0 10108#0 -10104 10115#5 -10090#1" begin="0" end="300" vehsPerHour="600" type="car"/>
  <flow id="f:0_1" departPos="random_free" from="-10114#1" to="-10079" via="-10114#0 10108#0 10108#5 -10090#1 gneE18" begin="0" end="300" vehsPerHour="600" type="car"/>
  <flow id="f:0_2" departPos="random_free" from="-10114#1" to="-10079" via="-10114#0 10108#0 10108#5 gneE5 gneE18" begin="0" end="300" vehsPerHour="600" type="car"/>
  <flow id="f:0_3" departPos="random_free" from="-10095" to="-10071#3" via="10109 10106#3 10115#5 -10080#0" begin="0" end="300" vehsPerHour="600" type="car"/>
  <flow id="f:0_4" departPos="random_free" from="10197#1" to="-10061#5" via="10089#3 -10049 10043 10053#0" begin="0" end="300" vehsPerHour="600" type="car"/>
  <flow id="f:0_5" departPos="random_free" from="-10185#1" to="-10071#3" via="gneE20 gneE13 -10046#0 -10090#1" begin="0" end="300" vehsPerHour="600" type="car"/>
  <flow id="f:1_0" departPos="random_free" from="-10114#1" to="-10079" via="-10114#0 10108#0 10108#5 -10090#1 gneE18" begin="300" end="600" vehsPerHour="600" type="car"/>
  <flow id="f:1_1" departPos="random_free" from="-10114#1" to="10076" via="-10114#0 10108#0 -10067#1 gneE9 gneE18" begin="300" end="600" vehsPerHour="600" type="car"/>
  <flow id="f:1_2" departPos="random_free" from="-10114#1" to="10180#1" via="-10114#0 10108#0 -10104 10115#5 -10090#1" begin="300" end="600" vehsPerHour="600" type="car"/>
  <flow id="f:1_3" departPos="random_free" from="-10114#1" to="10076" via="-10114#0 10107 10080#0 gneE12 10102" begin="300" end="600" vehsPerHour="600" type="car"/>
  <flow id="f:1_4" departPos="random_free" from="-10095" to="-10071#3" via="10109 10106#3 10115#5 -10080#0" begin="300" end="600" vehsPerHour="600" type="car"/>
  <flow id="f:1_5" departPos="random_free" from="10197#1" to="-10061#5" via="10089#3 -10049 10043 10053#0" begin="300" end="600" vehsPerHour="600" type="car"/>
  <flow id="f:1_6" departPos="random_free" from="10096#1" to="10063" via="10089#3 gneE4 -10090#1 gneE10" begin="300" end="600" vehsPerHour="600" type="car"/>
  <flow id="f:1_7" departPos="random_free" from="-10185#1" to="-10061#5" via="gneE19 -10046#5 10089#4 gneE12" begin="300" end="600" vehsPerHour="600" type="car"/>
  <flow id="f:2_0" departPos="random_free" from="-10114#1" to="10076" via="-10114#0 10108#0 -10067#1 gneE9 gneE18" begin="600" end="900" vehsPerHour="600" type="car"/>
  <flow id="f:2_1" departPos="random_free" from="-10114#1" to="10076" via="-10114#0 10107 10080#0 gneE12 10102" begin="600" end="900" vehsPerHour="600" type="car"/>
  <flow id="f:2_2" departPos="random_free" from="-10114#1" to="-10079" via="-10114#0 10108#0 10108#5 -10090#1 gneE18" begin="600" end="900" vehsPerHour="600" type="car"/>
  <flow id="f:2_3" departPos="random_free" from="-10114#1" to="-10079" via="10115#2 -10109 10089#3 -10116" begin="600" end="900" vehsPerHour="600" type="car"/>
  <flow id="f:2_4" departPos="random_free" from="-10114#1" to="10180#1" via="-10114#0 10108#0 -10104 10115#5 -10090#1" begin="600" end="900" vehsPerHour="600" type="car"/>
  <flow id="f:2_5" departPos="random_free" from="-10185#1" to="-10071#3" via="gneE20 gneE13 -10046#0 -10090#1" begin="600" end="900" vehsPerHour="600" type="car"/>
  <flow id="f:2_6" departPos="random_free" from="10096#1" to="10063" via="10089#3 gneE4 -10090#1 gneE10" begin="600" end="900" vehsPerHour="600" type="car"/>
  <flow id="f:2_7" departPos="random_free" from="-10095" to="-10071#3" via="10109 10106#3 10115#5 -10080#0" begin="600" end="900" vehsPerHour="600" type="car"/>
  <flow id="f:2_8" departPos="random_free" from="-10185#1" to="-10061#5" via="gneE19 -10046#5 10089#4 gneE12" begin="600" end="900" vehsPerHour="600" type="car"/>
  <flow id="f:2_9" departPos="random_free" from="10096#1" to="10063" via="10089#3 10091 gneE12 -10065#2" begin="600" end="900" vehsPerHour="600" type="car"/>
  <flow id="f:3_0" departPos="random_free" from="-10114#1" to="10180#1" via="-10114#0 10108#0 -10104 10115#5 -10090#1" begin="900" end="1200" vehsPerHour="600" type="car"/>
  <flow id="f:3_1" departPos="random_free" from="-10114#1" to="10076" via="-10114#0 10108#0 -10067#1 gneE9 gneE18" begin="900" end="1200" vehsPerHour="600" type="car"/>
  <flow id="f:3_2" departPos="random_free" from="-10114#1" to="-10079" via="-10114#0 10108#0 10108#5 gneE5 gneE18" begin="900" end="1200" vehsPerHour="600" type="car"/>
  <flow id="f:3_3" departPos="random_free" from="-10114#1" to="-10079" via="-10114#0 10108#0 10108#5 -10090#1 gneE18" begin="900" end="1200" vehsPerHour="600" type="car"/>
  <flow id="f:3_4" departPos="random_free" from="-10114#1" to="10076" via="-10114#0 10107 10080#0 gneE12 10102" begin="900" end="1200" vehsPerHour="600" type="car"/>
  <flow id="f:3_5" departPos="random_free" from="-10114#1" to="-10079" via="10115#2 -10109 10089#3 -10116" begin="900" end="1200" vehsPerHour="600" type="car"/>
  <flow id="f:3_6" departPos="random_free" from="10197#1" to="-10061#5" via="10089#3 -10049 10043 10053#0" begin="900" end="1200" vehsPerHour="600" type="car"/>
  <flow id="f:3_7" departPos="random_free" from="-10185#1" to="-10071#3" via="gneE20 gneE13 -10046#0 -10090#1" begin="900" end="1200" vehsPerHour="600" type="car"/>
  <flow id="f:3_8" departPos="random_free" from="-10185#1" to="-10061#5" via="gneE19 -10046#5 10089#4 gneE12" begin="900" end="1200" vehsPerHour="600" type="car"/>
  <flow id="f:3_9" departPos="random_free" from="10096#1" to="10063" via="10089#3 10091 gneE12 -10065#2" begin="900" end="1200" vehsPerHour="600" type="car"/>
  <flow id="f:3_10" departPos="random_free" from="10096#1" to="10063" via="10089#3 gneE4 -10090#1 gneE10" begin="900" end="1200" vehsPerHour="600" type="car"/>
  <flow id="f:3_11" departPos="random_free" from="-10095" to="-10071#3" via="10109 10106#3 10115#5 -10080#0" begin="900" end="1200" vehsPerHour="600" type="car"/>
  <flow id="f:3_12" departPos="random_free" from="-10051#2" to="10043" via="10179 10181#1 -10089#4 gneE4 gneE7" begin="900" end="1200" vehsPerHour="600" type="car"/>
  <flow id="f:3_13" departPos="random_free" from="10052#1" to="10104" via="10181#1 -10089#4 gneE4 gneE7" begin="900" end="1200" vehsPerHour="600" type="car"/>
  <flow id="f:3_14" departPos="random_free" from="-10064#9" to="-10086" via="-10064#4 10102 10031#1 10046#0" begin="900" end="1200" vehsPerHour="600" type="car"/>
  <flow id="f:3_15" departPos="random_free" from="10069#0" to="10085" via="10065#2 -10064#3 gneE5 10046#0" begin="900" end="1200" vehsPerHour="600" type="car"/>
  <flow id="f:4_0" departPos="random_free" from="-10114#1" to="10180#1" via="-10114#0 10108#0 -10104 10115#5 -10090#1" begin="1200" end="1500" vehsPerHour="600" type="car"/>
  <flow id="f:4_1" departPos="random_free" from="-10114#1" to="-10079" via="-10114#0 10108#0 10108#5 -10090#1 gneE18" begin="1200" end="1500" vehsPerHour="600" type="car"/>
  <flow id="f:4_2" departPos="random_free" from="-10114#1" to="10076" via="-10114#0 10108#0 -10067#1 gneE9 gneE18" begin="1200" end="1500" vehsPerHour="600" type="car"/>
  <flow id="f:4_3" departPos="random_free" from="-10114#1" to="-10079" via="-10114#0 10108#0 10108#5 gneE5 gneE18" begin="1200" end="1500" vehsPerHour="600" type="car"/>
  <flow id="f:4_4" departPos="random_free" from="10096#1" to="10063" via="10089#3 10091 gneE12 -10065#2" begin="1200" end="1500" vehsPerHour="600" type="car"/>
  <flow id="f:4_5" departPos="random_free" from="-10185#1" to="-10071#3" via="gneE20 gneE13 -10046#0 -10090#1" begin="1200" end="1500" vehsPerHour="600" type="car"/>
  <flow id="f:4_6" departPos="random_free" from="-10185#1" to="-10061#5" via="gneE19 -10046#5 10089#4 gneE12" begin="1200" end="1500" vehsPerHour="600" type="car"/>
  <flow id="f:4_7" departPos="random_free" from="10197#1" to="-10061#5" via="10089#3 -10049 10043 10053#0" begin="1200" end="1500" vehsPerHour="600" type="car"/>
  <flow id="f:4_8" departPos="random_free" from="10052#1" to="10104" via="10181#1 10116 -10089#3 10109" begin="1200" end="1500" vehsPerHour="600" type="car"/>
  <flow id="f:4_9" departPos="random_free" from="-10051#2" to="-10110" via="-10051#0 10181#1 -10089#3 -10049" begin="1200" end="1500" vehsPerHour="600" type="car"/>
  <flow id="f:4_10" departPos="random_free" from="-10051#2" to="-10110" via="-10051#0 10181#1 -10089#4 gneE4 -10115#5" begin="1200" end="1500" vehsPerHour="600" type="car"/>
  <flow id="f:4_11" departPos="random_free" from="10052#1" to="10104" via="10181#1 -10089#4 gneE4 gneE7" begin="1200" end="1500" vehsPerHour="600" type="car"/>
  <flow id="f:4_12" departPos="random_free" from="10061#4" to="-10085" via="10065#2 10102 10031#1 10046#0" begin="1200" end="1500" vehsPerHour="600" type="car"/>
  <flow id="f:4_13" departPos="random_free" from="10069#0" to="10085" via="10065#2 -10064#3 gneE5 10046#0" begin="1200" end="1500" vehsPerHour="600" type="car"/>
  <flow id="f:4_14" departPos="random_free" from="-10064#9" to="-10085" via="-10068 -10064#3 gneE5 10046#0" begin="1200" end="1500" vehsPerHour="600" type="car"/>
  <flow id="f:4_15" departPos="random_free" from="-10064#9" to="10085" via="-10064#4 -10064#3 gneE5 10046#0" begin="1200" end="1500" vehsPerHour="600" type="car"/>
  <flow id="f:5_0" departPos="random_free" from="-10114#1" to="-10079" via="10115#2 -10109 10089#3 -10116" begin="1500" end="1800" vehsPerHour="600" type="car"/>
  <flow id="f:5_1" departPos="random_free" from="-10114#1" to="-10079" via="-10114#0 10108#0 10108#5 -10090#1 gneE18" begin="1500" end="1800" vehsPerHour="600" type="car"/>
  <flow id="f:5_2" departPos="random_free" from="-10185#1" to="-10061#5" via="gneE19 -10046#5 10089#4 gneE12" begin="1500" end="1800" vehsPerHour="600" type="car"/>
  <flow id="f:5_3" departPos="random_free" from="10096#1" to="10063" via="10089#3 10091 gneE12 -10065#2" begin="1500" end="1800" vehsPerHour="600" type="car"/>
  <flow id="f:5_4" departPos="random_free" from="-10051#2" to="-10110" via="-10051#0 10181#1 -10089#4 gneE4 -10115#5" begin="1500" end="1800" vehsPerHour="600" type="car"/>
  <flow id="f:5_5" departPos="random_free" from="-10051#2" to="10043" via="10179 10181#1 10116 -10089#3 10109" begin="1500" end="1800" vehsPerHour="600" type="car"/>
  <flow id="f:5_6" departPos="random_free" from="-10051#2" to="-10110" via="-10051#0 10181#1 -10089#3 -10049" begin="1500" end="1800" vehsPerHour="600" type="car"/>
  <flow id="f:5_7" departPos="random_free" from="-10051#2" to="10043" via="10179 10181#1 -10089#4 gneE4 gneE7" begin="1500" end="1800" vehsPerHour="600" type="car"/>
  <flow id="f:5_8" departPos="random_free" from="10052#1" to="10104" via="10181#1 10116 -10089#3 10109" begin="1500" end="1800" vehsPerHour="600" type="car"/>
  <flow id="f:5_9" departPos="random_free" from="-10064#9" to="-10085" via="-10068 -10064#3 gneE5 10046#0" begin="1500" end="1800" vehsPerHour="600" type="car"/>
  <flow id="f:5_10" departPos="random_free" from="-10064#9" to="10085" via="-10064#4 -10064#3 gneE5 10046#0" begin="1500" end="1800" vehsPerHour="600" type="car"/>
  <flow id="f:5_11" departPos="random_free" from="-10058#0" to="-10086" via="10071#5 10108#5 gneE5 10046#0" begin="1500" end="1800" vehsPerHour="600" type="car"/>
  <flow id="f:5_12" departPos="random_free" from="-10064#9" to="-10086" via="-10064#4 10102 10031#1 10046#0" begin="1500" end="1800" vehsPerHour="600" type="car"/>
  <flow id="f:5_13" departPos="random_free" from="10061#4" to="-10085" via="10065#2 10102 10031#1 10046#0" begin="1500" end="1800" vehsPerHour="600" type="car"/>
  <flow id="f:6_0" departPos="random_free" from="-10114#1" to="-10079" via="-10114#0 10108#0 10108#5 -10090#1 gneE18" begin="1800" end="2100" vehsPerHour="600" type="car"/>
  <flow id="f:6_1" departPos="random_free" from="10197#1" to="-10061#5" via="10089#3 -10049 10043 10053#0" begin="1800" end="2100" vehsPerHour="600" type="car"/>
  <flow id="f:6_2" departPos="random_free" from="-10051#2" to="10043" via="10179 10181#1 -10089#4 gneE4 gneE7" begin="1800" end="2100" vehsPerHour="600" type="car"/>
  <flow id="f:6_3" departPos="random_free" from="-10051#2" to="-10110" via="-10051#0 10181#1 -10089#4 gneE4 -10115#5" begin="1800" end="2100" vehsPerHour="600" type="car"/>
  <flow id="f:6_4" departPos="random_free" from="10052#1" to="10104" via="10181#1 -10089#4 gneE4 gneE7" begin="1800" end="2100" vehsPerHour="600" type="car"/>
  <flow id="f:6_5" departPos="random_free" from="10052#1" to="10104" via="10181#1 10116 -10089#3 10109" begin="1800" end="2100" vehsPerHour="600" type="car"/>
  <flow id="f:6_6" departPos="random_free" from="-10051#2" to="10043" via="10179 10181#1 10116 -10089#3 10109" begin="1800" end="2100" vehsPerHour="600" type="car"/>
  <flow id="f:6_7" departPos="random_free" from="-10051#2" to="-10110" via="-10051#0 10181#1 -10089#3 -10049" begin="1800" end="2100" vehsPerHour="600" type="car"/>
  <flow id="f:6_8" departPos="random_free" from="-10064#9" to="-10085" via="-10068 -10064#3 gneE5 10046#0" begin="1800" end="2100" vehsPerHour="600" type="car"/>
  <flow id="f:6_9" departPos="random_free" from="10069#0" to="10085" via="10065#2 -10064#3 gneE5 10046#0" begin="1800" end="2100" vehsPerHour="600" type="car"/>
  <flow id="f:6_10" departPos="random_free" from="-10064#9" to="-10086" via="-10064#4 10102 10031#1 10046#0" begin="1800" end="2100" vehsPerHour="600" type="car"/>
  <flow id="f:6_11" departPos="random_free" from="-10058#0" to="-10086" via="10071#5 10108#5 gneE5 10046#0" begin="1800" end="2100" vehsPerHour="600" type="car"/>
  <flow id="f:6_12" departPos="random_free" from="10061#4" to="-10085" via="10065#2 10102 10031#1 10046#0" begin="1800" end="2100" vehsPerHour="600" type="car"/>
  <flow id="f:6_13" departPos="random_free" from="-10064#9" to="10085" via="-10064#4 -10064#3 gneE5 10046#0" begin="1800" end="2100" vehsPerHour="600" type="car"/>
  <flow id="f:7_0" departPos="random_free" from="-10051#2" to="10043" via="10179 10181#1 -10089#4 gneE4 gneE7" begin="2100" end="2400" vehsPerHour="600" type="car"/>
  <flow id="f:7_1" departPos="random_free" from="10052#1" to="10104" via="10181#1 10116 -10089#3 10109" begin="2100" end="2400" vehsPerHour="600" type="car"/>
  <flow id="f:7_2" departPos="random_free" from="-10051#2" to="-10110" via="-10051#0 10181#1 -10089#4 gneE4 -10115#5" begin="2100" end="2400" vehsPerHour="600" type="car"/>
  <flow id="f:7_3" departPos="random_free" from="10069#0" to="10085" via="10065#2 -10064#3 gneE5 10046#0" begin="2100" end="2400" vehsPerHour="600" type="car"/>
  <flow id="f:7_4" departPos="random_free" from="-10064#9" to="10085" via="-10064#4 -10064#3 gneE5 10046#0" begin="2100" end="2400" vehsPerHour="600" type="car"/>
  <flow id="f:7_5" departPos="random_free" from="-10064#9" to="-10085" via="-10068 -10064#3 gneE5 10046#0" begin="2100" end="2400" vehsPerHour="600" type="car"/>
  <flow id="f:8_0" departPos="random_free" from="-10051#2" to="-10110" via="-10051#0 10181#1 -10089#4 gneE4 -10115#5" begin="2400" end="2700" vehsPerHour="600" type="car"/>
  <flow id="f:8_1" departPos="random_free" from="-10051#2" to="10043" via="10179 10181#1 10116 -10089#3 10109" begin="2400" end="2700" vehsPerHour="600" type="car"/>
  <flow id="f:8_2" departPos="random_free" from="-10058#0" to="-10086" via="10071#5 10108#5 gneE5 10046#0" begin="2400" end="2700" vehsPerHour="600" type="car"/>
  <flow id="f:8_3" departPos="random_free" from="10069#0" to="10085" via="10065#2 -10064#3 gneE5 10046#0" begin="2400" end="2700" vehsPerHour="600" type="car"/>
  <flow id="f:9_0" departPos="random_free" from="-10051#2" to="10043" via="10179 10181#1 10116 -10089#3 10109" begin="2700" end="3000" vehsPerHour="600" type="car"/>
  <flow id="f:9_1" departPos="random_free" from="-10058#0" to="-10086" via="10071#5 10108#5 gneE5 10046#0" begin="2700" end="3000" vehsPerHour="600" type="car"/>
</routes>
