<flowdefs>
  <vType id="type1" length="5" accel="5" decel="10"/>
  <flow id="f:0,0" from="e:np1,nt1" begin="0" end="600" vehsPerHour="900" type="type1"/>
  <flow id="f:1,0" from="e:np2,nt1" begin="0" end="600" vehsPerHour="600" type="type1"/>
  <flow id="f:2,0" from="e:np3,nt1" begin="0" end="600" vehsPerHour="950" type="type1"/>
  <flow id="f:3,0" from="e:np8,nt4" begin="0" end="600" vehsPerHour="1150" type="type1"/>
  <flow id="f:4,0" from="e:np9,nt4" begin="0" end="600" vehsPerHour="1250" type="type1"/>
  <flow id="f:0,1" from="e:np1,nt1" begin="600" end="1200" vehsPerHour="950" type="type1"/>
  <flow id="f:1,1" from="e:np2,nt1" begin="600" end="1200" vehsPerHour="700" type="type1"/>
  <flow id="f:2,1" from="e:np3,nt1" begin="600" end="1200" vehsPerHour="1000" type="type1"/>
  <flow id="f:3,1" from="e:np8,nt4" begin="600" end="1200" vehsPerHour="1300" type="type1"/>
  <flow id="f:4,1" from="e:np9,nt4" begin="600" end="1200" vehsPerHour="1400" type="type1"/>
  <flow id="f:0,2" from="e:np1,nt1" begin="1200" end="1800" vehsPerHour="1000" type="type1"/>
  <flow id="f:1,2" from="e:np2,nt1" begin="1200" end="1800" vehsPerHour="800" type="type1"/>
  <flow id="f:2,2" from="e:np3,nt1" begin="1200" end="1800" vehsPerHour="1100" type="type1"/>
  <flow id="f:3,2" from="e:np8,nt4" begin="1200" end="1800" vehsPerHour="1400" type="type1"/>
  <flow id="f:4,2" from="e:np9,nt4" begin="1200" end="1800" vehsPerHour="1500" type="type1"/>
  <flow id="f:0,3" from="e:np1,nt1" begin="1800" end="2400" vehsPerHour="1200" type="type1"/>
  <flow id="f:1,3" from="e:np2,nt1" begin="1800" end="2400" vehsPerHour="1000" type="type1"/>
  <flow id="f:2,3" from="e:np3,nt1" begin="1800" end="2400" vehsPerHour="1250" type="type1"/>
  <flow id="f:3,3" from="e:np8,nt4" begin="1800" end="2400" vehsPerHour="1850" type="type1"/>
  <flow id="f:4,3" from="e:np9,nt4" begin="1800" end="2400" vehsPerHour="1650" type="type1"/>
  <flow id="f:0,4" from="e:np1,nt1" begin="2400" end="3000" vehsPerHour="1250" type="type1"/>
  <flow id="f:1,4" from="e:np2,nt1" begin="2400" end="3000" vehsPerHour="1050" type="type1"/>
  <flow id="f:2,4" from="e:np3,nt1" begin="2400" end="3000" vehsPerHour="1450" type="type1"/>
  <flow id="f:3,4" from="e:np8,nt4" begin="2400" end="3000" vehsPerHour="1900" type="type1"/>
  <flow id="f:4,4" from="e:np9,nt4" begin="2400" end="3000" vehsPerHour="1850" type="type1"/>
  <flow id="f:0,5" from="e:np1,nt1" begin="3000" end="3600" vehsPerHour="1300" type="type1"/>
  <flow id="f:1,5" from="e:np2,nt1" begin="3000" end="3600" vehsPerHour="1100" type="type1"/>
  <flow id="f:2,5" from="e:np3,nt1" begin="3000" end="3600" vehsPerHour="1500" type="type1"/>
  <flow id="f:3,5" from="e:np8,nt4" begin="3000" end="3600" vehsPerHour="1950" type="type1"/>
  <flow id="f:4,5" from="e:np9,nt4" begin="3000" end="3600" vehsPerHour="1900" type="type1"/>
  <flow id="f:0,6" from="e:np1,nt1" begin="3600" end="4200" vehsPerHour="1400" type="type1"/>
  <flow id="f:1,6" from="e:np2,nt1" begin="3600" end="4200" vehsPerHour="1150" type="type1"/>
  <flow id="f:2,6" from="e:np3,nt1" begin="3600" end="4200" vehsPerHour="1600" type="type1"/>
  <flow id="f:3,6" from="e:np8,nt4" begin="3600" end="4200" vehsPerHour="2000" type="type1"/>
  <flow id="f:4,6" from="e:np9,nt4" begin="3600" end="4200" vehsPerHour="1950" type="type1"/>
  <flow id="f:0,7" from="e:np1,nt1" begin="4200" end="4800" vehsPerHour="1300" type="type1"/>
  <flow id="f:1,7" from="e:np2,nt1" begin="4200" end="4800" vehsPerHour="1050" type="type1"/>
  <flow id="f:2,7" from="e:np3,nt1" begin="4200" end="4800" vehsPerHour="1400" type="type1"/>
  <flow id="f:3,7" from="e:np8,nt4" begin="4200" end="4800" vehsPerHour="1900" type="type1"/>
  <flow id="f:4,7" from="e:np9,nt4" begin="4200" end="4800" vehsPerHour="1800" type="type1"/>
  <flow id="f:0,8" from="e:np1,nt1" begin="4800" end="5400" vehsPerHour="1250" type="type1"/>
  <flow id="f:1,8" from="e:np2,nt1" begin="4800" end="5400" vehsPerHour="1000" type="type1"/>
  <flow id="f:2,8" from="e:np3,nt1" begin="4800" end="5400" vehsPerHour="1350" type="type1"/>
  <flow id="f:3,8" from="e:np8,nt4" begin="4800" end="5400" vehsPerHour="1800" type="type1"/>
  <flow id="f:4,8" from="e:np9,nt4" begin="4800" end="5400" vehsPerHour="1700" type="type1"/>
  <flow id="f:0,9" from="e:np1,nt1" begin="5400" end="6000" vehsPerHour="1200" type="type1"/>
  <flow id="f:1,9" from="e:np2,nt1" begin="5400" end="6000" vehsPerHour="900" type="type1"/>
  <flow id="f:2,9" from="e:np3,nt1" begin="5400" end="6000" vehsPerHour="1250" type="type1"/>
  <flow id="f:3,9" from="e:np8,nt4" begin="5400" end="6000" vehsPerHour="1500" type="type1"/>
  <flow id="f:4,9" from="e:np9,nt4" begin="5400" end="6000" vehsPerHour="1600" type="type1"/>
  <flow id="f:0,10" from="e:np1,nt1" begin="6000" end="6600" vehsPerHour="1000" type="type1"/>
  <flow id="f:1,10" from="e:np2,nt1" begin="6000" end="6600" vehsPerHour="700" type="type1"/>
  <flow id="f:2,10" from="e:np3,nt1" begin="6000" end="6600" vehsPerHour="1100" type="type1"/>
  <flow id="f:3,10" from="e:np8,nt4" begin="6000" end="6600" vehsPerHour="1300" type="type1"/>
  <flow id="f:4,10" from="e:np9,nt4" begin="6000" end="6600" vehsPerHour="1400" type="type1"/>
  <flow id="f:0,11" from="e:np1,nt1" begin="6600" end="7200" vehsPerHour="800" type="type1"/>
  <flow id="f:1,11" from="e:np2,nt1" begin="6600" end="7200" vehsPerHour="600" type="type1"/>
  <flow id="f:2,11" from="e:np3,nt1" begin="6600" end="7200" vehsPerHour="900" type="type1"/>
  <flow id="f:3,11" from="e:np8,nt4" begin="6600" end="7200" vehsPerHour="1100" type="type1"/>
  <flow id="f:4,11" from="e:np9,nt4" begin="6600" end="7200" vehsPerHour="1200" type="type1"/>
</flowdefs>
