<routes>
  <vType id="type1" length="5" accel="5" decel="10"/>
  <flow id="mf:3,0" departPos="random_free" begin="0" end="1200" probability="0.33" type="type1">
    <route edges="e:nt4,nt5 e:nt5,nt6 e:nt6,np12"/>
  </flow>
  <flow id="mf:4,0" departPos="random_free" begin="0" end="1200" probability="0.33" type="type1">
    <route edges="e:nt1,nt2 e:nt2,np4"/>
  </flow>
  <flow id="mf:5,0" departPos="random_free" begin="0" end="1200" probability="0.33" type="type1">
    <route edges="e:nt1,nt6 e:nt6,np13"/>
  </flow>
  <flow id="f:0,0" from="e:np1,nt1" begin="0" end="600" vehsPerHour="360" type="type1"/>
  <flow id="f:1,0" from="e:np2,nt1" begin="0" end="600" vehsPerHour="240" type="type1"/>
  <flow id="f:2,0" from="e:np3,nt1" begin="0" end="600" vehsPerHour="380" type="type1"/>
  <flow id="f:3,0" from="e:np8,nt4" begin="0" end="600" vehsPerHour="460" type="type1"/>
  <flow id="f:4,0" from="e:np9,nt4" begin="0" end="600" vehsPerHour="500" type="type1"/>
  <flow id="f:0,1" from="e:np1,nt1" begin="600" end="1200" vehsPerHour="380" type="type1"/>
  <flow id="f:1,1" from="e:np2,nt1" begin="600" end="1200" vehsPerHour="280" type="type1"/>
  <flow id="f:2,1" from="e:np3,nt1" begin="600" end="1200" vehsPerHour="400" type="type1"/>
  <flow id="f:3,1" from="e:np8,nt4" begin="600" end="1200" vehsPerHour="520" type="type1"/>
  <flow id="f:4,1" from="e:np9,nt4" begin="600" end="1200" vehsPerHour="560" type="type1"/>
  <flow id="mf:0,1" departPos="random_free" begin="1200" end="2400" probability="0.33" type="type1">
    <route edges="e:nt1,npc e:npc,nt5 e:nt5,np11"/>
  </flow>
  <flow id="mf:3,1" departPos="random_free" begin="1200" end="2400" probability="0.33" type="type1">
    <route edges="e:nt4,nt5 e:nt5,nt6 e:nt6,np12"/>
  </flow>
  <flow id="mf:4,1" departPos="random_free" begin="1200" end="2400" probability="0.33" type="type1">
    <route edges="e:nt1,nt2 e:nt2,np4"/>
  </flow>
  <flow id="f:0,2" from="e:np1,nt1" begin="1200" end="1800" vehsPerHour="400" type="type1"/>
  <flow id="f:1,2" from="e:np2,nt1" begin="1200" end="1800" vehsPerHour="320" type="type1"/>
  <flow id="f:2,2" from="e:np3,nt1" begin="1200" end="1800" vehsPerHour="440" type="type1"/>
  <flow id="f:3,2" from="e:np8,nt4" begin="1200" end="1800" vehsPerHour="560" type="type1"/>
  <flow id="f:4,2" from="e:np9,nt4" begin="1200" end="1800" vehsPerHour="600" type="type1"/>
  <flow id="f:0,3" from="e:np1,nt1" begin="1800" end="2400" vehsPerHour="480" type="type1"/>
  <flow id="f:1,3" from="e:np2,nt1" begin="1800" end="2400" vehsPerHour="400" type="type1"/>
  <flow id="f:2,3" from="e:np3,nt1" begin="1800" end="2400" vehsPerHour="500" type="type1"/>
  <flow id="f:3,3" from="e:np8,nt4" begin="1800" end="2400" vehsPerHour="740" type="type1"/>
  <flow id="f:4,3" from="e:np9,nt4" begin="1800" end="2400" vehsPerHour="660" type="type1"/>
  <flow id="mf:1,2" departPos="random_free" begin="2400" end="3600" probability="0.33" type="type1">
    <route edges="e:nt1,npc e:npc,nt5 e:nt5,nt6 e:nt6,np12"/>
  </flow>
  <flow id="mf:2,2" departPos="random_free" begin="2400" end="3600" probability="0.33" type="type1">
    <route edges="e:nt4,nt5 e:nt5,np11"/>
  </flow>
  <flow id="mf:5,2" departPos="random_free" begin="2400" end="3600" probability="0.33" type="type1">
    <route edges="e:nt1,nt6 e:nt6,np13"/>
  </flow>
  <flow id="f:0,4" from="e:np1,nt1" begin="2400" end="3000" vehsPerHour="500" type="type1"/>
  <flow id="f:1,4" from="e:np2,nt1" begin="2400" end="3000" vehsPerHour="420" type="type1"/>
  <flow id="f:2,4" from="e:np3,nt1" begin="2400" end="3000" vehsPerHour="580" type="type1"/>
  <flow id="f:3,4" from="e:np8,nt4" begin="2400" end="3000" vehsPerHour="760" type="type1"/>
  <flow id="f:4,4" from="e:np9,nt4" begin="2400" end="3000" vehsPerHour="740" type="type1"/>
  <flow id="f:0,5" from="e:np1,nt1" begin="3000" end="3600" vehsPerHour="520" type="type1"/>
  <flow id="f:1,5" from="e:np2,nt1" begin="3000" end="3600" vehsPerHour="440" type="type1"/>
  <flow id="f:2,5" from="e:np3,nt1" begin="3000" end="3600" vehsPerHour="600" type="type1"/>
  <flow id="f:3,5" from="e:np8,nt4" begin="3000" end="3600" vehsPerHour="780" type="type1"/>
  <flow id="f:4,5" from="e:np9,nt4" begin="3000" end="3600" vehsPerHour="760" type="type1"/>
  <flow id="mf:4,3" departPos="random_free" begin="3600" end="4800" probability="0.33" type="type1">
    <route edges="e:nt1,nt2 e:nt2,np4"/>
  </flow>
  <flow id="mf:5,3" departPos="random_free" begin="3600" end="4800" probability="0.33" type="type1">
    <route edges="e:nt1,nt6 e:nt6,np13"/>
  </flow>
  <flow id="mf:9,3" departPos="random_free" begin="3600" end="4800" probability="0.33" type="type1">
    <route edges="e:nt4,nt3 e:nt3,nt2 e:nt2,np5"/>
  </flow>
  <flow id="f:0,6" from="e:np1,nt1" begin="3600" end="4200" vehsPerHour="560" type="type1"/>
  <flow id="f:1,6" from="e:np2,nt1" begin="3600" end="4200" vehsPerHour="460" type="type1"/>
  <flow id="f:2,6" from="e:np3,nt1" begin="3600" end="4200" vehsPerHour="640" type="type1"/>
  <flow id="f:3,6" from="e:np8,nt4" begin="3600" end="4200" vehsPerHour="800" type="type1"/>
  <flow id="f:4,6" from="e:np9,nt4" begin="3600" end="4200" vehsPerHour="780" type="type1"/>
  <flow id="f:0,7" from="e:np1,nt1" begin="4200" end="4800" vehsPerHour="520" type="type1"/>
  <flow id="f:1,7" from="e:np2,nt1" begin="4200" end="4800" vehsPerHour="420" type="type1"/>
  <flow id="f:2,7" from="e:np3,nt1" begin="4200" end="4800" vehsPerHour="560" type="type1"/>
  <flow id="f:3,7" from="e:np8,nt4" begin="4200" end="4800" vehsPerHour="760" type="type1"/>
  <flow id="f:4,7" from="e:np9,nt4" begin="4200" end="4800" vehsPerHour="720" type="type1"/>
  <flow id="mf:5,4" departPos="random_free" begin="4800" end="6000" probability="0.33" type="type1">
    <route edges="e:nt1,nt6 e:nt6,np13"/>
  </flow>
  <flow id="mf:6,4" departPos="random_free" begin="4800" end="6000" probability="0.33" type="type1">
    <route edges="e:nt1,npc e:npc,nt3 e:nt3,np6"/>
  </flow>
  <flow id="mf:9,4" departPos="random_free" begin="4800" end="6000" probability="0.33" type="type1">
    <route edges="e:nt4,nt3 e:nt3,nt2 e:nt2,np5"/>
  </flow>
  <flow id="f:0,8" from="e:np1,nt1" begin="4800" end="5400" vehsPerHour="500" type="type1"/>
  <flow id="f:1,8" from="e:np2,nt1" begin="4800" end="5400" vehsPerHour="400" type="type1"/>
  <flow id="f:2,8" from="e:np3,nt1" begin="4800" end="5400" vehsPerHour="540" type="type1"/>
  <flow id="f:3,8" from="e:np8,nt4" begin="4800" end="5400" vehsPerHour="720" type="type1"/>
  <flow id="f:4,8" from="e:np9,nt4" begin="4800" end="5400" vehsPerHour="680" type="type1"/>
  <flow id="f:0,9" from="e:np1,nt1" begin="5400" end="6000" vehsPerHour="480" type="type1"/>
  <flow id="f:1,9" from="e:np2,nt1" begin="5400" end="6000" vehsPerHour="360" type="type1"/>
  <flow id="f:2,9" from="e:np3,nt1" begin="5400" end="6000" vehsPerHour="500" type="type1"/>
  <flow id="f:3,9" from="e:np8,nt4" begin="5400" end="6000" vehsPerHour="600" type="type1"/>
  <flow id="f:4,9" from="e:np9,nt4" begin="5400" end="6000" vehsPerHour="640" type="type1"/>
  <flow id="mf:4,5" departPos="random_free" begin="6000" end="7200" probability="0.33" type="type1">
    <route edges="e:nt1,nt2 e:nt2,np4"/>
  </flow>
  <flow id="mf:7,5" departPos="random_free" begin="6000" end="7200" probability="0.33" type="type1">
    <route edges="e:nt1,npc e:npc,nt3 e:nt3,nt2 e:nt2,np5"/>
  </flow>
  <flow id="mf:8,5" departPos="random_free" begin="6000" end="7200" probability="0.33" type="type1">
    <route edges="e:nt4,nt3 e:nt3,np6"/>
  </flow>
  <flow id="f:0,10" from="e:np1,nt1" begin="6000" end="6600" vehsPerHour="400" type="type1"/>
  <flow id="f:1,10" from="e:np2,nt1" begin="6000" end="6600" vehsPerHour="280" type="type1"/>
  <flow id="f:2,10" from="e:np3,nt1" begin="6000" end="6600" vehsPerHour="440" type="type1"/>
  <flow id="f:3,10" from="e:np8,nt4" begin="6000" end="6600" vehsPerHour="520" type="type1"/>
  <flow id="f:4,10" from="e:np9,nt4" begin="6000" end="6600" vehsPerHour="560" type="type1"/>
  <flow id="f:0,11" from="e:np1,nt1" begin="6600" end="7200" vehsPerHour="320" type="type1"/>
  <flow id="f:1,11" from="e:np2,nt1" begin="6600" end="7200" vehsPerHour="240" type="type1"/>
  <flow id="f:2,11" from="e:np3,nt1" begin="6600" end="7200" vehsPerHour="360" type="type1"/>
  <flow id="f:3,11" from="e:np8,nt4" begin="6600" end="7200" vehsPerHour="440" type="type1"/>
  <flow id="f:4,11" from="e:np9,nt4" begin="6600" end="7200" vehsPerHour="480" type="type1"/>
</routes>
