<types>
  <type id="a" numLanes="1" speed="20.00"/>
</types>
