<?xml version="1.0" encoding="UTF-8"?>

<!-- generated on Mon Apr 30 21:45:29 2018 by SUMO jtrrouter Version 0.32.0
<?xml version="1.0" encoding="UTF-8"?>

<configuration xmlns:xsi="http://www.w3.org/2001/XMLSchema-instance" xsi:noNamespaceSchemaLocation="http://sumo.dlr.de/xsd/jtrrouterConfiguration.xsd">

    <input>
        <net-file value="./small_grid/data/exp.net.xml"/>
        <route-files value="./small_grid/data/exp_1.raw.rou.xml"/>
        <turn-ratio-files value="./small_grid/data/exp.turns.xml"/>
    </input>

    <output>
        <output-file value="./small_grid/data/exp_1.rou.xml"/>
    </output>

    <random_number>
        <seed value="0"/>
    </random_number>

</configuration>
-->

<routes xmlns:xsi="http://www.w3.org/2001/XMLSchema-instance" xsi:noNamespaceSchemaLocation="http://sumo.dlr.de/xsd/routes_file.xsd">
    <vType id="type1" length="5.00" accel="5" decel="10"/>
    <vehicle id="f:0,0.0" type="type1" depart="0.00">
        <route edges="e:np1,nt1 e:nt1,nt6 e:nt6,np13"/>
    </vehicle>
    <vehicle id="f:1,0.0" type="type1" depart="0.00">
        <route edges="e:np2,nt1 e:nt1,nt2 e:nt2,np4"/>
    </vehicle>
    <vehicle id="f:2,0.0" type="type1" depart="0.00">
        <route edges="e:np3,nt1 e:nt1,npc e:npc,nt3 e:nt3,np6"/>
    </vehicle>
    <vehicle id="f:3,0.0" type="type1" depart="0.00">
        <route edges="e:np8,nt4 e:nt4,nt3 e:nt3,nt2 e:nt2,np5"/>
    </vehicle>
    <vehicle id="f:4,0.0" type="type1" depart="0.00">
        <route edges="e:np9,nt4 e:nt4,nt3 e:nt3,np6"/>
    </vehicle>
    <vehicle id="mf:4,0.0" type="type1" depart="2.00" departPos="random_free">
        <route edges="e:nt1,nt2 e:nt2,np4"/>
    </vehicle>
    <vehicle id="mf:5,0.0" type="type1" depart="6.00" departPos="random_free">
        <route edges="e:nt1,nt6 e:nt6,np13"/>
    </vehicle>
    <vehicle id="f:4,0.1" type="type1" depart="7.20">
        <route edges="e:np9,nt4 e:nt4,nt3 e:nt3,nt2 e:nt2,np5"/>
    </vehicle>
    <vehicle id="f:3,0.1" type="type1" depart="7.83">
        <route edges="e:np8,nt4 e:nt4,nt5 e:nt5,nt6 e:nt6,np12"/>
    </vehicle>
    <vehicle id="mf:4,0.1" type="type1" depart="8.00" departPos="random_free">
        <route edges="e:nt1,nt2 e:nt2,np4"/>
    </vehicle>
    <vehicle id="mf:5,0.1" type="type1" depart="8.00" departPos="random_free">
        <route edges="e:nt1,nt6 e:nt6,np13"/>
    </vehicle>
    <vehicle id="f:2,0.1" type="type1" depart="9.47">
        <route edges="e:np3,nt1 e:nt1,npc e:npc,nt5 e:nt5,nt6 e:nt6,np12"/>
    </vehicle>
    <vehicle id="f:0,0.1" type="type1" depart="10.00">
        <route edges="e:np1,nt1 e:nt1,npc e:npc,nt5 e:nt5,np11"/>
    </vehicle>
    <vehicle id="mf:5,0.2" type="type1" depart="10.00" departPos="random_free">
        <route edges="e:nt1,nt6 e:nt6,np13"/>
    </vehicle>
    <vehicle id="f:4,0.2" type="type1" depart="14.40">
        <route edges="e:np9,nt4 e:nt4,nt3 e:nt3,nt2 e:nt2,np5"/>
    </vehicle>
    <vehicle id="f:1,0.1" type="type1" depart="15.00">
        <route edges="e:np2,nt1 e:nt1,npc e:npc,nt5 e:nt5,np11"/>
    </vehicle>
    <vehicle id="mf:3,0.0" type="type1" depart="15.00" departPos="random_free">
        <route edges="e:nt4,nt5 e:nt5,nt6 e:nt6,np12"/>
    </vehicle>
    <vehicle id="f:3,0.2" type="type1" depart="15.65">
        <route edges="e:np8,nt4 e:nt4,nt5 e:nt5,np11"/>
    </vehicle>
    <vehicle id="mf:4,0.2" type="type1" depart="16.00" departPos="random_free">
        <route edges="e:nt1,nt2 e:nt2,np4"/>
    </vehicle>
    <vehicle id="mf:3,0.1" type="type1" depart="17.00" departPos="random_free">
        <route edges="e:nt4,nt5 e:nt5,nt6 e:nt6,np12"/>
    </vehicle>
    <vehicle id="f:2,0.2" type="type1" depart="18.95">
        <route edges="e:np3,nt1 e:nt1,nt2 e:nt2,np4"/>
    </vehicle>
    <vehicle id="f:0,0.2" type="type1" depart="20.00">
        <route edges="e:np1,nt1 e:nt1,nt6 e:nt6,np13"/>
    </vehicle>
    <vehicle id="f:4,0.3" type="type1" depart="21.60">
        <route edges="e:np9,nt4 e:nt4,nt3 e:nt3,np6"/>
    </vehicle>
    <vehicle id="mf:5,0.3" type="type1" depart="22.00" departPos="random_free">
        <route edges="e:nt1,nt6 e:nt6,np13"/>
    </vehicle>
    <vehicle id="f:3,0.3" type="type1" depart="23.48">
        <route edges="e:np8,nt4 e:nt4,nt3 e:nt3,nt2 e:nt2,np5"/>
    </vehicle>
    <vehicle id="mf:4,0.3" type="type1" depart="25.00" departPos="random_free">
        <route edges="e:nt1,nt2 e:nt2,np4"/>
    </vehicle>
    <vehicle id="mf:5,0.4" type="type1" depart="26.00" departPos="random_free">
        <route edges="e:nt1,nt6 e:nt6,np13"/>
    </vehicle>
    <vehicle id="mf:5,0.5" type="type1" depart="27.00" departPos="random_free">
        <route edges="e:nt1,nt6 e:nt6,np13"/>
    </vehicle>
    <vehicle id="mf:3,0.2" type="type1" depart="28.00" departPos="random_free">
        <route edges="e:nt4,nt5 e:nt5,nt6 e:nt6,np12"/>
    </vehicle>
    <vehicle id="mf:5,0.6" type="type1" depart="28.00" departPos="random_free">
        <route edges="e:nt1,nt6 e:nt6,np13"/>
    </vehicle>
    <vehicle id="f:2,0.3" type="type1" depart="28.42">
        <route edges="e:np3,nt1 e:nt1,npc e:npc,nt5 e:nt5,np11"/>
    </vehicle>
    <vehicle id="f:4,0.4" type="type1" depart="28.80">
        <route edges="e:np9,nt4 e:nt4,nt3 e:nt3,nt2 e:nt2,np5"/>
    </vehicle>
    <vehicle id="mf:5,0.7" type="type1" depart="29.00" departPos="random_free">
        <route edges="e:nt1,nt6 e:nt6,np13"/>
    </vehicle>
    <vehicle id="f:0,0.3" type="type1" depart="30.00">
        <route edges="e:np1,nt1 e:nt1,npc e:npc,nt3 e:nt3,np6"/>
    </vehicle>
    <vehicle id="f:1,0.2" type="type1" depart="30.00">
        <route edges="e:np2,nt1 e:nt1,npc e:npc,nt5 e:nt5,np11"/>
    </vehicle>
    <vehicle id="mf:3,0.3" type="type1" depart="30.00" departPos="random_free">
        <route edges="e:nt4,nt5 e:nt5,nt6 e:nt6,np12"/>
    </vehicle>
    <vehicle id="f:3,0.4" type="type1" depart="31.30">
        <route edges="e:np8,nt4 e:nt4,nt5 e:nt5,nt6 e:nt6,np12"/>
    </vehicle>
    <vehicle id="mf:3,0.4" type="type1" depart="32.00" departPos="random_free">
        <route edges="e:nt4,nt5 e:nt5,nt6 e:nt6,np12"/>
    </vehicle>
    <vehicle id="mf:4,0.4" type="type1" depart="33.00" departPos="random_free">
        <route edges="e:nt1,nt2 e:nt2,np4"/>
    </vehicle>
    <vehicle id="f:4,0.5" type="type1" depart="36.00">
        <route edges="e:np9,nt4 e:nt4,nt3 e:nt3,nt2 e:nt2,np5"/>
    </vehicle>
    <vehicle id="mf:3,0.5" type="type1" depart="37.00" departPos="random_free">
        <route edges="e:nt4,nt5 e:nt5,nt6 e:nt6,np12"/>
    </vehicle>
    <vehicle id="f:2,0.4" type="type1" depart="37.90">
        <route edges="e:np3,nt1 e:nt1,npc e:npc,nt5 e:nt5,nt6 e:nt6,np12"/>
    </vehicle>
    <vehicle id="f:3,0.5" type="type1" depart="39.13">
        <route edges="e:np8,nt4 e:nt4,nt3 e:nt3,np6"/>
    </vehicle>
    <vehicle id="f:0,0.4" type="type1" depart="40.00">
        <route edges="e:np1,nt1 e:nt1,nt6 e:nt6,np13"/>
    </vehicle>
    <vehicle id="mf:5,0.8" type="type1" depart="41.00" departPos="random_free">
        <route edges="e:nt1,nt6 e:nt6,np13"/>
    </vehicle>
    <vehicle id="f:4,0.6" type="type1" depart="43.20">
        <route edges="e:np9,nt4 e:nt4,nt5 e:nt5,nt6 e:nt6,np12"/>
    </vehicle>
    <vehicle id="mf:5,0.9" type="type1" depart="44.00" departPos="random_free">
        <route edges="e:nt1,nt6 e:nt6,np13"/>
    </vehicle>
    <vehicle id="f:1,0.3" type="type1" depart="45.00">
        <route edges="e:np2,nt1 e:nt1,npc e:npc,nt3 e:nt3,np6"/>
    </vehicle>
    <vehicle id="mf:4,0.5" type="type1" depart="45.00" departPos="random_free">
        <route edges="e:nt1,nt2 e:nt2,np4"/>
    </vehicle>
    <vehicle id="f:3,0.6" type="type1" depart="46.96">
        <route edges="e:np8,nt4 e:nt4,nt3 e:nt3,nt2 e:nt2,np5"/>
    </vehicle>
    <vehicle id="f:2,0.5" type="type1" depart="47.37">
        <route edges="e:np3,nt1 e:nt1,npc e:npc,nt3 e:nt3,nt2 e:nt2,np5"/>
    </vehicle>
    <vehicle id="mf:3,0.6" type="type1" depart="48.00" departPos="random_free">
        <route edges="e:nt4,nt5 e:nt5,nt6 e:nt6,np12"/>
    </vehicle>
    <vehicle id="mf:5,0.10" type="type1" depart="48.00" departPos="random_free">
        <route edges="e:nt1,nt6 e:nt6,np13"/>
    </vehicle>
    <vehicle id="f:0,0.5" type="type1" depart="50.00">
        <route edges="e:np1,nt1 e:nt1,npc e:npc,nt3 e:nt3,nt2 e:nt2,np5"/>
    </vehicle>
    <vehicle id="f:4,0.7" type="type1" depart="50.40">
        <route edges="e:np9,nt4 e:nt4,nt5 e:nt5,np11"/>
    </vehicle>
    <vehicle id="mf:3,0.7" type="type1" depart="52.00" departPos="random_free">
        <route edges="e:nt4,nt5 e:nt5,nt6 e:nt6,np12"/>
    </vehicle>
    <vehicle id="mf:4,0.6" type="type1" depart="52.00" departPos="random_free">
        <route edges="e:nt1,nt2 e:nt2,np4"/>
    </vehicle>
    <vehicle id="mf:5,0.11" type="type1" depart="54.00" departPos="random_free">
        <route edges="e:nt1,nt6 e:nt6,np13"/>
    </vehicle>
    <vehicle id="f:3,0.7" type="type1" depart="54.78">
        <route edges="e:np8,nt4 e:nt4,nt5 e:nt5,nt6 e:nt6,np12"/>
    </vehicle>
    <vehicle id="f:2,0.6" type="type1" depart="56.84">
        <route edges="e:np3,nt1 e:nt1,npc e:npc,nt3 e:nt3,np6"/>
    </vehicle>
    <vehicle id="mf:3,0.8" type="type1" depart="57.00" departPos="random_free">
        <route edges="e:nt4,nt5 e:nt5,nt6 e:nt6,np12"/>
    </vehicle>
    <vehicle id="mf:5,0.12" type="type1" depart="57.00" departPos="random_free">
        <route edges="e:nt1,nt6 e:nt6,np13"/>
    </vehicle>
    <vehicle id="f:4,0.8" type="type1" depart="57.60">
        <route edges="e:np9,nt4 e:nt4,nt5 e:nt5,np11"/>
    </vehicle>
    <vehicle id="f:0,0.6" type="type1" depart="60.00">
        <route edges="e:np1,nt1 e:nt1,nt2 e:nt2,np4"/>
    </vehicle>
    <vehicle id="f:1,0.4" type="type1" depart="60.00">
        <route edges="e:np2,nt1 e:nt1,npc e:npc,nt5 e:nt5,np11"/>
    </vehicle>
    <vehicle id="mf:3,0.9" type="type1" depart="60.00" departPos="random_free">
        <route edges="e:nt4,nt5 e:nt5,nt6 e:nt6,np12"/>
    </vehicle>
    <vehicle id="mf:5,0.13" type="type1" depart="60.00" departPos="random_free">
        <route edges="e:nt1,nt6 e:nt6,np13"/>
    </vehicle>
    <vehicle id="mf:3,0.10" type="type1" depart="61.00" departPos="random_free">
        <route edges="e:nt4,nt5 e:nt5,nt6 e:nt6,np12"/>
    </vehicle>
    <vehicle id="mf:5,0.14" type="type1" depart="62.00" departPos="random_free">
        <route edges="e:nt1,nt6 e:nt6,np13"/>
    </vehicle>
    <vehicle id="f:3,0.8" type="type1" depart="62.61">
        <route edges="e:np8,nt4 e:nt4,nt5 e:nt5,np11"/>
    </vehicle>
    <vehicle id="mf:4,0.7" type="type1" depart="64.00" departPos="random_free">
        <route edges="e:nt1,nt2 e:nt2,np4"/>
    </vehicle>
    <vehicle id="f:4,0.9" type="type1" depart="64.80">
        <route edges="e:np9,nt4 e:nt4,nt3 e:nt3,np6"/>
    </vehicle>
    <vehicle id="mf:3,0.11" type="type1" depart="65.00" departPos="random_free">
        <route edges="e:nt4,nt5 e:nt5,nt6 e:nt6,np12"/>
    </vehicle>
    <vehicle id="mf:4,0.8" type="type1" depart="65.00" departPos="random_free">
        <route edges="e:nt1,nt2 e:nt2,np4"/>
    </vehicle>
    <vehicle id="mf:5,0.15" type="type1" depart="66.00" departPos="random_free">
        <route edges="e:nt1,nt6 e:nt6,np13"/>
    </vehicle>
    <vehicle id="f:2,0.7" type="type1" depart="66.32">
        <route edges="e:np3,nt1 e:nt1,nt2 e:nt2,np4"/>
    </vehicle>
    <vehicle id="mf:3,0.12" type="type1" depart="67.00" departPos="random_free">
        <route edges="e:nt4,nt5 e:nt5,nt6 e:nt6,np12"/>
    </vehicle>
    <vehicle id="mf:4,0.9" type="type1" depart="67.00" departPos="random_free">
        <route edges="e:nt1,nt2 e:nt2,np4"/>
    </vehicle>
    <vehicle id="mf:3,0.13" type="type1" depart="68.00" departPos="random_free">
        <route edges="e:nt4,nt5 e:nt5,nt6 e:nt6,np12"/>
    </vehicle>
    <vehicle id="mf:5,0.16" type="type1" depart="68.00" departPos="random_free">
        <route edges="e:nt1,nt6 e:nt6,np13"/>
    </vehicle>
    <vehicle id="mf:5,0.17" type="type1" depart="69.00" departPos="random_free">
        <route edges="e:nt1,nt6 e:nt6,np13"/>
    </vehicle>
    <vehicle id="f:0,0.7" type="type1" depart="70.00">
        <route edges="e:np1,nt1 e:nt1,nt6 e:nt6,np13"/>
    </vehicle>
    <vehicle id="f:3,0.9" type="type1" depart="70.43">
        <route edges="e:np8,nt4 e:nt4,nt5 e:nt5,np11"/>
    </vehicle>
    <vehicle id="mf:3,0.14" type="type1" depart="71.00" departPos="random_free">
        <route edges="e:nt4,nt5 e:nt5,nt6 e:nt6,np12"/>
    </vehicle>
    <vehicle id="f:4,0.10" type="type1" depart="72.00">
        <route edges="e:np9,nt4 e:nt4,nt5 e:nt5,nt6 e:nt6,np12"/>
    </vehicle>
    <vehicle id="mf:3,0.15" type="type1" depart="73.00" departPos="random_free">
        <route edges="e:nt4,nt5 e:nt5,nt6 e:nt6,np12"/>
    </vehicle>
    <vehicle id="mf:4,0.10" type="type1" depart="73.00" departPos="random_free">
        <route edges="e:nt1,nt2 e:nt2,np4"/>
    </vehicle>
    <vehicle id="f:1,0.5" type="type1" depart="75.00">
        <route edges="e:np2,nt1 e:nt1,npc e:npc,nt3 e:nt3,np6"/>
    </vehicle>
    <vehicle id="mf:5,0.18" type="type1" depart="75.00" departPos="random_free">
        <route edges="e:nt1,nt6 e:nt6,np13"/>
    </vehicle>
    <vehicle id="f:2,0.8" type="type1" depart="75.79">
        <route edges="e:np3,nt1 e:nt1,nt2 e:nt2,np4"/>
    </vehicle>
    <vehicle id="mf:5,0.19" type="type1" depart="76.00" departPos="random_free">
        <route edges="e:nt1,nt6 e:nt6,np13"/>
    </vehicle>
    <vehicle id="mf:5,0.20" type="type1" depart="77.00" departPos="random_free">
        <route edges="e:nt1,nt6 e:nt6,np13"/>
    </vehicle>
    <vehicle id="f:3,0.10" type="type1" depart="78.26">
        <route edges="e:np8,nt4 e:nt4,nt5 e:nt5,np11"/>
    </vehicle>
    <vehicle id="mf:4,0.11" type="type1" depart="79.00" departPos="random_free">
        <route edges="e:nt1,nt2 e:nt2,np4"/>
    </vehicle>
    <vehicle id="f:4,0.11" type="type1" depart="79.20">
        <route edges="e:np9,nt4 e:nt4,nt3 e:nt3,nt2 e:nt2,np5"/>
    </vehicle>
    <vehicle id="f:0,0.8" type="type1" depart="80.00">
        <route edges="e:np1,nt1 e:nt1,nt6 e:nt6,np13"/>
    </vehicle>
    <vehicle id="mf:4,0.12" type="type1" depart="81.00" departPos="random_free">
        <route edges="e:nt1,nt2 e:nt2,np4"/>
    </vehicle>
    <vehicle id="mf:5,0.21" type="type1" depart="82.00" departPos="random_free">
        <route edges="e:nt1,nt6 e:nt6,np13"/>
    </vehicle>
    <vehicle id="mf:4,0.13" type="type1" depart="83.00" departPos="random_free">
        <route edges="e:nt1,nt2 e:nt2,np4"/>
    </vehicle>
    <vehicle id="mf:3,0.16" type="type1" depart="85.00" departPos="random_free">
        <route edges="e:nt4,nt5 e:nt5,nt6 e:nt6,np12"/>
    </vehicle>
    <vehicle id="mf:5,0.22" type="type1" depart="85.00" departPos="random_free">
        <route edges="e:nt1,nt6 e:nt6,np13"/>
    </vehicle>
    <vehicle id="f:2,0.9" type="type1" depart="85.27">
        <route edges="e:np3,nt1 e:nt1,npc e:npc,nt3 e:nt3,nt2 e:nt2,np5"/>
    </vehicle>
    <vehicle id="mf:3,0.17" type="type1" depart="86.00" departPos="random_free">
        <route edges="e:nt4,nt5 e:nt5,nt6 e:nt6,np12"/>
    </vehicle>
    <vehicle id="mf:5,0.23" type="type1" depart="86.00" departPos="random_free">
        <route edges="e:nt1,nt6 e:nt6,np13"/>
    </vehicle>
    <vehicle id="f:3,0.11" type="type1" depart="86.09">
        <route edges="e:np8,nt4 e:nt4,nt3 e:nt3,nt2 e:nt2,np5"/>
    </vehicle>
    <vehicle id="f:4,0.12" type="type1" depart="86.40">
        <route edges="e:np9,nt4 e:nt4,nt5 e:nt5,nt6 e:nt6,np12"/>
    </vehicle>
    <vehicle id="mf:4,0.14" type="type1" depart="87.00" departPos="random_free">
        <route edges="e:nt1,nt2 e:nt2,np4"/>
    </vehicle>
    <vehicle id="mf:5,0.24" type="type1" depart="87.00" departPos="random_free">
        <route edges="e:nt1,nt6 e:nt6,np13"/>
    </vehicle>
    <vehicle id="f:0,0.9" type="type1" depart="90.00">
        <route edges="e:np1,nt1 e:nt1,npc e:npc,nt5 e:nt5,np11"/>
    </vehicle>
    <vehicle id="f:1,0.6" type="type1" depart="90.00">
        <route edges="e:np2,nt1 e:nt1,npc e:npc,nt3 e:nt3,np6"/>
    </vehicle>
    <vehicle id="mf:3,0.18" type="type1" depart="91.00" departPos="random_free">
        <route edges="e:nt4,nt5 e:nt5,nt6 e:nt6,np12"/>
    </vehicle>
    <vehicle id="mf:3,0.19" type="type1" depart="92.00" departPos="random_free">
        <route edges="e:nt4,nt5 e:nt5,nt6 e:nt6,np12"/>
    </vehicle>
    <vehicle id="mf:4,0.15" type="type1" depart="92.00" departPos="random_free">
        <route edges="e:nt1,nt2 e:nt2,np4"/>
    </vehicle>
    <vehicle id="mf:4,0.16" type="type1" depart="93.00" departPos="random_free">
        <route edges="e:nt1,nt2 e:nt2,np4"/>
    </vehicle>
    <vehicle id="f:4,0.13" type="type1" depart="93.60">
        <route edges="e:np9,nt4 e:nt4,nt3 e:nt3,nt2 e:nt2,np5"/>
    </vehicle>
    <vehicle id="f:3,0.12" type="type1" depart="93.91">
        <route edges="e:np8,nt4 e:nt4,nt5 e:nt5,np11"/>
    </vehicle>
    <vehicle id="mf:3,0.20" type="type1" depart="94.00" departPos="random_free">
        <route edges="e:nt4,nt5 e:nt5,nt6 e:nt6,np12"/>
    </vehicle>
    <vehicle id="mf:5,0.25" type="type1" depart="94.00" departPos="random_free">
        <route edges="e:nt1,nt6 e:nt6,np13"/>
    </vehicle>
    <vehicle id="f:2,0.10" type="type1" depart="94.74">
        <route edges="e:np3,nt1 e:nt1,nt2 e:nt2,np4"/>
    </vehicle>
    <vehicle id="mf:5,0.26" type="type1" depart="95.00" departPos="random_free">
        <route edges="e:nt1,nt6 e:nt6,np13"/>
    </vehicle>
    <vehicle id="mf:5,0.27" type="type1" depart="96.00" departPos="random_free">
        <route edges="e:nt1,nt6 e:nt6,np13"/>
    </vehicle>
    <vehicle id="mf:5,0.28" type="type1" depart="97.00" departPos="random_free">
        <route edges="e:nt1,nt6 e:nt6,np13"/>
    </vehicle>
    <vehicle id="mf:5,0.29" type="type1" depart="99.00" departPos="random_free">
        <route edges="e:nt1,nt6 e:nt6,np13"/>
    </vehicle>
    <vehicle id="f:0,0.10" type="type1" depart="100.00">
        <route edges="e:np1,nt1 e:nt1,npc e:npc,nt5 e:nt5,np11"/>
    </vehicle>
    <vehicle id="mf:4,0.17" type="type1" depart="100.00" departPos="random_free">
        <route edges="e:nt1,nt2 e:nt2,np4"/>
    </vehicle>
    <vehicle id="f:4,0.14" type="type1" depart="100.80">
        <route edges="e:np9,nt4 e:nt4,nt3 e:nt3,np6"/>
    </vehicle>
    <vehicle id="mf:3,0.21" type="type1" depart="101.00" departPos="random_free">
        <route edges="e:nt4,nt5 e:nt5,nt6 e:nt6,np12"/>
    </vehicle>
    <vehicle id="f:3,0.13" type="type1" depart="101.74">
        <route edges="e:np8,nt4 e:nt4,nt3 e:nt3,np6"/>
    </vehicle>
    <vehicle id="mf:4,0.18" type="type1" depart="103.00" departPos="random_free">
        <route edges="e:nt1,nt2 e:nt2,np4"/>
    </vehicle>
    <vehicle id="mf:5,0.30" type="type1" depart="103.00" departPos="random_free">
        <route edges="e:nt1,nt6 e:nt6,np13"/>
    </vehicle>
    <vehicle id="mf:4,0.19" type="type1" depart="104.00" departPos="random_free">
        <route edges="e:nt1,nt2 e:nt2,np4"/>
    </vehicle>
    <vehicle id="f:2,0.11" type="type1" depart="104.21">
        <route edges="e:np3,nt1 e:nt1,npc e:npc,nt3 e:nt3,np6"/>
    </vehicle>
    <vehicle id="f:1,0.7" type="type1" depart="105.00">
        <route edges="e:np2,nt1 e:nt1,npc e:npc,nt5 e:nt5,nt6 e:nt6,np12"/>
    </vehicle>
    <vehicle id="mf:3,0.22" type="type1" depart="106.00" departPos="random_free">
        <route edges="e:nt4,nt5 e:nt5,nt6 e:nt6,np12"/>
    </vehicle>
    <vehicle id="mf:4,0.20" type="type1" depart="107.00" departPos="random_free">
        <route edges="e:nt1,nt2 e:nt2,np4"/>
    </vehicle>
    <vehicle id="mf:5,0.31" type="type1" depart="107.00" departPos="random_free">
        <route edges="e:nt1,nt6 e:nt6,np13"/>
    </vehicle>
    <vehicle id="f:4,0.15" type="type1" depart="108.00">
        <route edges="e:np9,nt4 e:nt4,nt3 e:nt3,nt2 e:nt2,np5"/>
    </vehicle>
    <vehicle id="mf:3,0.23" type="type1" depart="108.00" departPos="random_free">
        <route edges="e:nt4,nt5 e:nt5,nt6 e:nt6,np12"/>
    </vehicle>
    <vehicle id="mf:4,0.21" type="type1" depart="108.00" departPos="random_free">
        <route edges="e:nt1,nt2 e:nt2,np4"/>
    </vehicle>
    <vehicle id="mf:5,0.32" type="type1" depart="109.00" departPos="random_free">
        <route edges="e:nt1,nt6 e:nt6,np13"/>
    </vehicle>
    <vehicle id="f:3,0.14" type="type1" depart="109.56">
        <route edges="e:np8,nt4 e:nt4,nt5 e:nt5,nt6 e:nt6,np12"/>
    </vehicle>
    <vehicle id="f:0,0.11" type="type1" depart="110.00">
        <route edges="e:np1,nt1 e:nt1,nt6 e:nt6,np13"/>
    </vehicle>
    <vehicle id="mf:3,0.24" type="type1" depart="110.00" departPos="random_free">
        <route edges="e:nt4,nt5 e:nt5,nt6 e:nt6,np12"/>
    </vehicle>
    <vehicle id="mf:5,0.33" type="type1" depart="110.00" departPos="random_free">
        <route edges="e:nt1,nt6 e:nt6,np13"/>
    </vehicle>
    <vehicle id="f:2,0.12" type="type1" depart="113.69">
        <route edges="e:np3,nt1 e:nt1,nt6 e:nt6,np13"/>
    </vehicle>
    <vehicle id="mf:3,0.25" type="type1" depart="114.00" departPos="random_free">
        <route edges="e:nt4,nt5 e:nt5,nt6 e:nt6,np12"/>
    </vehicle>
    <vehicle id="mf:4,0.22" type="type1" depart="115.00" departPos="random_free">
        <route edges="e:nt1,nt2 e:nt2,np4"/>
    </vehicle>
    <vehicle id="mf:5,0.34" type="type1" depart="115.00" departPos="random_free">
        <route edges="e:nt1,nt6 e:nt6,np13"/>
    </vehicle>
    <vehicle id="f:4,0.16" type="type1" depart="115.20">
        <route edges="e:np9,nt4 e:nt4,nt5 e:nt5,np11"/>
    </vehicle>
    <vehicle id="mf:4,0.23" type="type1" depart="117.00" departPos="random_free">
        <route edges="e:nt1,nt2 e:nt2,np4"/>
    </vehicle>
    <vehicle id="mf:5,0.35" type="type1" depart="117.00" departPos="random_free">
        <route edges="e:nt1,nt6 e:nt6,np13"/>
    </vehicle>
    <vehicle id="f:3,0.15" type="type1" depart="117.39">
        <route edges="e:np8,nt4 e:nt4,nt3 e:nt3,nt2 e:nt2,np5"/>
    </vehicle>
    <vehicle id="mf:3,0.26" type="type1" depart="118.00" departPos="random_free">
        <route edges="e:nt4,nt5 e:nt5,nt6 e:nt6,np12"/>
    </vehicle>
    <vehicle id="mf:4,0.24" type="type1" depart="118.00" departPos="random_free">
        <route edges="e:nt1,nt2 e:nt2,np4"/>
    </vehicle>
    <vehicle id="f:0,0.12" type="type1" depart="120.00">
        <route edges="e:np1,nt1 e:nt1,nt6 e:nt6,np13"/>
    </vehicle>
    <vehicle id="f:1,0.8" type="type1" depart="120.00">
        <route edges="e:np2,nt1 e:nt1,nt6 e:nt6,np13"/>
    </vehicle>
    <vehicle id="mf:3,0.27" type="type1" depart="120.00" departPos="random_free">
        <route edges="e:nt4,nt5 e:nt5,nt6 e:nt6,np12"/>
    </vehicle>
    <vehicle id="mf:5,0.36" type="type1" depart="120.00" departPos="random_free">
        <route edges="e:nt1,nt6 e:nt6,np13"/>
    </vehicle>
    <vehicle id="mf:3,0.28" type="type1" depart="122.00" departPos="random_free">
        <route edges="e:nt4,nt5 e:nt5,nt6 e:nt6,np12"/>
    </vehicle>
    <vehicle id="mf:5,0.37" type="type1" depart="122.00" departPos="random_free">
        <route edges="e:nt1,nt6 e:nt6,np13"/>
    </vehicle>
    <vehicle id="f:4,0.17" type="type1" depart="122.40">
        <route edges="e:np9,nt4 e:nt4,nt5 e:nt5,np11"/>
    </vehicle>
    <vehicle id="mf:5,0.38" type="type1" depart="123.00" departPos="random_free">
        <route edges="e:nt1,nt6 e:nt6,np13"/>
    </vehicle>
    <vehicle id="f:2,0.13" type="type1" depart="123.16">
        <route edges="e:np3,nt1 e:nt1,nt2 e:nt2,np4"/>
    </vehicle>
    <vehicle id="mf:5,0.39" type="type1" depart="124.00" departPos="random_free">
        <route edges="e:nt1,nt6 e:nt6,np13"/>
    </vehicle>
    <vehicle id="mf:4,0.25" type="type1" depart="125.00" departPos="random_free">
        <route edges="e:nt1,nt2 e:nt2,np4"/>
    </vehicle>
    <vehicle id="f:3,0.16" type="type1" depart="125.22">
        <route edges="e:np8,nt4 e:nt4,nt5 e:nt5,nt6 e:nt6,np12"/>
    </vehicle>
    <vehicle id="mf:3,0.29" type="type1" depart="126.00" departPos="random_free">
        <route edges="e:nt4,nt5 e:nt5,nt6 e:nt6,np12"/>
    </vehicle>
    <vehicle id="mf:5,0.40" type="type1" depart="127.00" departPos="random_free">
        <route edges="e:nt1,nt6 e:nt6,np13"/>
    </vehicle>
    <vehicle id="mf:3,0.30" type="type1" depart="128.00" departPos="random_free">
        <route edges="e:nt4,nt5 e:nt5,nt6 e:nt6,np12"/>
    </vehicle>
    <vehicle id="mf:4,0.26" type="type1" depart="129.00" departPos="random_free">
        <route edges="e:nt1,nt2 e:nt2,np4"/>
    </vehicle>
    <vehicle id="f:4,0.18" type="type1" depart="129.60">
        <route edges="e:np9,nt4 e:nt4,nt3 e:nt3,nt2 e:nt2,np5"/>
    </vehicle>
    <vehicle id="f:0,0.13" type="type1" depart="130.00">
        <route edges="e:np1,nt1 e:nt1,npc e:npc,nt3 e:nt3,np6"/>
    </vehicle>
    <vehicle id="mf:4,0.27" type="type1" depart="131.00" departPos="random_free">
        <route edges="e:nt1,nt2 e:nt2,np4"/>
    </vehicle>
    <vehicle id="mf:4,0.28" type="type1" depart="132.00" departPos="random_free">
        <route edges="e:nt1,nt2 e:nt2,np4"/>
    </vehicle>
    <vehicle id="f:2,0.14" type="type1" depart="132.64">
        <route edges="e:np3,nt1 e:nt1,nt2 e:nt2,np4"/>
    </vehicle>
    <vehicle id="mf:3,0.31" type="type1" depart="133.00" departPos="random_free">
        <route edges="e:nt4,nt5 e:nt5,nt6 e:nt6,np12"/>
    </vehicle>
    <vehicle id="f:3,0.17" type="type1" depart="133.04">
        <route edges="e:np8,nt4 e:nt4,nt3 e:nt3,nt2 e:nt2,np5"/>
    </vehicle>
    <vehicle id="mf:3,0.32" type="type1" depart="134.00" departPos="random_free">
        <route edges="e:nt4,nt5 e:nt5,nt6 e:nt6,np12"/>
    </vehicle>
    <vehicle id="f:1,0.9" type="type1" depart="135.00">
        <route edges="e:np2,nt1 e:nt1,nt2 e:nt2,np4"/>
    </vehicle>
    <vehicle id="mf:5,0.41" type="type1" depart="135.00" departPos="random_free">
        <route edges="e:nt1,nt6 e:nt6,np13"/>
    </vehicle>
    <vehicle id="mf:5,0.42" type="type1" depart="136.00" departPos="random_free">
        <route edges="e:nt1,nt6 e:nt6,np13"/>
    </vehicle>
    <vehicle id="f:4,0.19" type="type1" depart="136.80">
        <route edges="e:np9,nt4 e:nt4,nt3 e:nt3,np6"/>
    </vehicle>
    <vehicle id="mf:3,0.33" type="type1" depart="138.00" departPos="random_free">
        <route edges="e:nt4,nt5 e:nt5,nt6 e:nt6,np12"/>
    </vehicle>
    <vehicle id="mf:4,0.29" type="type1" depart="138.00" departPos="random_free">
        <route edges="e:nt1,nt2 e:nt2,np4"/>
    </vehicle>
    <vehicle id="f:0,0.14" type="type1" depart="140.00">
        <route edges="e:np1,nt1 e:nt1,nt6 e:nt6,np13"/>
    </vehicle>
    <vehicle id="f:3,0.18" type="type1" depart="140.87">
        <route edges="e:np8,nt4 e:nt4,nt5 e:nt5,nt6 e:nt6,np12"/>
    </vehicle>
    <vehicle id="mf:4,0.30" type="type1" depart="142.00" departPos="random_free">
        <route edges="e:nt1,nt2 e:nt2,np4"/>
    </vehicle>
    <vehicle id="f:2,0.15" type="type1" depart="142.11">
        <route edges="e:np3,nt1 e:nt1,nt6 e:nt6,np13"/>
    </vehicle>
    <vehicle id="f:4,0.20" type="type1" depart="144.00">
        <route edges="e:np9,nt4 e:nt4,nt3 e:nt3,nt2 e:nt2,np5"/>
    </vehicle>
    <vehicle id="mf:4,0.31" type="type1" depart="144.00" departPos="random_free">
        <route edges="e:nt1,nt2 e:nt2,np4"/>
    </vehicle>
    <vehicle id="mf:3,0.34" type="type1" depart="145.00" departPos="random_free">
        <route edges="e:nt4,nt5 e:nt5,nt6 e:nt6,np12"/>
    </vehicle>
    <vehicle id="mf:4,0.32" type="type1" depart="145.00" departPos="random_free">
        <route edges="e:nt1,nt2 e:nt2,np4"/>
    </vehicle>
    <vehicle id="mf:5,0.43" type="type1" depart="145.00" departPos="random_free">
        <route edges="e:nt1,nt6 e:nt6,np13"/>
    </vehicle>
    <vehicle id="mf:4,0.33" type="type1" depart="146.00" departPos="random_free">
        <route edges="e:nt1,nt2 e:nt2,np4"/>
    </vehicle>
    <vehicle id="mf:4,0.34" type="type1" depart="147.00" departPos="random_free">
        <route edges="e:nt1,nt2 e:nt2,np4"/>
    </vehicle>
    <vehicle id="mf:5,0.44" type="type1" depart="148.00" departPos="random_free">
        <route edges="e:nt1,nt6 e:nt6,np13"/>
    </vehicle>
    <vehicle id="f:3,0.19" type="type1" depart="148.69">
        <route edges="e:np8,nt4 e:nt4,nt3 e:nt3,nt2 e:nt2,np5"/>
    </vehicle>
    <vehicle id="mf:3,0.35" type="type1" depart="149.00" departPos="random_free">
        <route edges="e:nt4,nt5 e:nt5,nt6 e:nt6,np12"/>
    </vehicle>
    <vehicle id="f:0,0.15" type="type1" depart="150.00">
        <route edges="e:np1,nt1 e:nt1,nt6 e:nt6,np13"/>
    </vehicle>
    <vehicle id="f:1,0.10" type="type1" depart="150.00">
        <route edges="e:np2,nt1 e:nt1,npc e:npc,nt5 e:nt5,np11"/>
    </vehicle>
    <vehicle id="mf:3,0.36" type="type1" depart="150.00" departPos="random_free">
        <route edges="e:nt4,nt5 e:nt5,nt6 e:nt6,np12"/>
    </vehicle>
    <vehicle id="mf:4,0.35" type="type1" depart="150.00" departPos="random_free">
        <route edges="e:nt1,nt2 e:nt2,np4"/>
    </vehicle>
    <vehicle id="f:4,0.21" type="type1" depart="151.20">
        <route edges="e:np9,nt4 e:nt4,nt3 e:nt3,nt2 e:nt2,np5"/>
    </vehicle>
    <vehicle id="f:2,0.16" type="type1" depart="151.58">
        <route edges="e:np3,nt1 e:nt1,npc e:npc,nt5 e:nt5,np11"/>
    </vehicle>
    <vehicle id="mf:3,0.37" type="type1" depart="154.00" departPos="random_free">
        <route edges="e:nt4,nt5 e:nt5,nt6 e:nt6,np12"/>
    </vehicle>
    <vehicle id="f:3,0.20" type="type1" depart="156.52">
        <route edges="e:np8,nt4 e:nt4,nt3 e:nt3,nt2 e:nt2,np5"/>
    </vehicle>
    <vehicle id="mf:3,0.38" type="type1" depart="158.00" departPos="random_free">
        <route edges="e:nt4,nt5 e:nt5,nt6 e:nt6,np12"/>
    </vehicle>
    <vehicle id="mf:4,0.36" type="type1" depart="158.00" departPos="random_free">
        <route edges="e:nt1,nt2 e:nt2,np4"/>
    </vehicle>